TRANSITIVEBUILT=NO
MKMK_DEVSTAGE=
MOD_LinkWith=M_JS0GROUP M_JS0BASEILB M_CATSysMultiThreading M_CATSysTS M_CATSysTSObjectModeler M_CATAfrFoundation M_CATAfrItf M_CATVisItf M_CATAfrCompanion M_CATAfrComponentsModel M_DELWkiExposeUseItf
MKMK_WARNING=
MKMK_ZIPJAVASOURCE=
GProtected=C:\Works\DS\COMAC_DEL2\.\CAACOMACPublicFrm\ProtectedGenerated\win_b64
IProtected=C:\Works\DS\COMAC_DEL2\.\CAACOMACPublicFrm\ProtectedInterfaces
M_CATVisItf=mkSharedLibrary "C:\Program Files\Dassault Systemes\B422\.\VisualizationInterfaces\CATVisItf.m" CATVisItf - - - - - -
MKMK_BSCMAKE=
M_CATSysTSObjectModeler=mkSharedLibrary "C:\Program Files\Dassault Systemes\B422\.\SystemTS\CATSysTSObjectModeler.m" CATSysTSObjectModeler - - - - - -
GLocal=C:\Works\DS\COMAC_DEL2\.\CAACOMACPublicFrm\CAACOMACAddinMdl.m\LocalGenerated\win_b64
ILocal=C:\Works\DS\COMAC_DEL2\.\CAACOMACPublicFrm\CAACOMACAddinMdl.m\LocalInterfaces
M_JS0BASEILB=mkSharedLibrary "C:\Program Files\Dassault Systemes\B422\.\SystemTS\JS0BASEILB.m" JS0BASEILB - - - - - -
IPublic=C:\Works\DS\COMAC_DEL2\.\CAACOMACPublicFrm\PublicInterfaces
GPublic=C:\Works\DS\COMAC_DEL2\.\CAACOMACPublicFrm\PublicGenerated\win_b64
MODSOURCES=C:\Works\DS\COMAC_DEL2\.\CAACOMACPublicFrm\CAACOMACAddinMdl.m
MOD_INCPATH="C:\Works\DS\COMAC_DEL2\.\CAACOMACPublicFrm\CAACOMACAddinMdl.m\src" "C:\Works\DS\COMAC_DEL2\.\CAACOMACPublicFrm\CAACOMACAddinMdl.m\LocalInterfaces" "C:\Works\DS\COMAC_DEL2\.\CAACOMACPublicFrm\CAACOMACAddinMdl.m\LocalGenerated\win_b64"
GPrivate=C:\Works\DS\COMAC_DEL2\.\CAACOMACPublicFrm\PrivateGenerated\win_b64
IPrivate=C:\Works\DS\COMAC_DEL2\.\CAACOMACPublicFrm\PrivateInterfaces
USE_PDB_FILE=YES
WSPATH=C:\Works\DS\COMAC_DEL2\.
MODPATH=C:\Works\DS\COMAC_DEL2\.\CAACOMACPublicFrm\CAACOMACAddinMdl.m
M_CAACOMACAddinMdl=mkSharedLibrary "C:\Works\DS\COMAC_DEL2\.\CAACOMACPublicFrm\CAACOMACAddinMdl.m" CAACOMACAddinMdl - - - - - -
FWNAME=CAACOMACPublicFrm
WSROOT=C:\Works\DS\COMAC_DEL2\.
CONTNAME=CAACOMACAddinMdl
WSSOURCES=C:\Works\DS\COMAC_DEL2\.
M_CATAfrComponentsModel=mkSharedLibrary "C:\Program Files\Dassault Systemes\B422\.\AfrComponentsModel\CATAfrComponentsModel.m" CATAfrComponentsModel - - - - - -
TARGETS_VALID=cppgrammar typelibgrammar compilation sourceruler cpponly link1st link2nd runtimedata buildtimedata
WSENAME_msg=CAACOMACPublicFrm\CAACOMACAddinMdl.m
MODDIRNAME=CAACOMACAddinMdl.m
M_CATAfrCompanion=mkSharedLibrary "C:\Program Files\Dassault Systemes\B422\.\AfrFoundation\CATAfrCompanion.m" CATAfrCompanion - - - - - -
M_CATAfrFoundation=mkSharedLibrary "C:\Program Files\Dassault Systemes\B422\.\AfrFoundation\CATAfrFoundation.m" CATAfrFoundation - - - - - -
M_JS0GROUP=mkSharedLibrary "C:\Program Files\Dassault Systemes\B422\.\System\JS0GROUP.m" JS0GROUP - - - - - -
NAME=C:\Works\DS\COMAC_DEL2\.\CAACOMACPublicFrm\CAACOMACAddinMdl.m\Objects\win_b64\.mkdata.mkb
M_CATAfrItf=mkSharedLibrary "C:\Program Files\Dassault Systemes\B422\.\AfrInterfaces\CATAfrItf.m" CATAfrItf - - - - - -
STEPS_TO_BUILD=DoxGrammar1st buildtimedata compilation cppgrammar cpponly cscimplement cscimplementclang grammar1st link1st link2nd runtimedata sourceruler typelibgrammar
WSEKEY=M_CAACOMACAddinMdl
TARGET_DYNLINK=link1st link2nd
_MK_CLR_BLDCONF=MANAGED_CLR$(_MK_MSNET_VERS)
WIZARD_LINK_MODULES=JS0GROUP CATAfrFoundation CATAfrItf DELWkiExposeUseItf
F_CAACOMACPublicFrm=mkFrameworkCode "C:\Works\DS\COMAC_DEL2\.\CAACOMACPublicFrm" CAACOMACPublicFrm - -
WSSOURCES_Concat="C:\Works\DS\COMAC_DEL2\." "C:\Program Files\Dassault Systemes\B422\."
FW_AllPreq=AfrFoundation,21EE1151;AfrInterfaces,21ED1151;BSFBuildtimeData,21DD1140;CATPLMComponentInterfaces,21EE1151;CATPLMIdentificationAccess,21EC1151;CATPLMIntegrationAccess,21EE1151;CATPLMIntegrationUse,21EE1151;CATPLMUIInterfaces,21EE1151;DELPPRProcessItf,21EE1151;DELPPRSystemItf,21EE1151;DELWkiExposeUseItf,21EE1151;Dialog,21EC1151;KnowledgeInterfaces,21EC1151;ObjectModelerBase,21ED1151;PLMDictionaryNavServices,21ED1151;PLMDocumentInterfaces,21EE1151;PLMSetupDataInterfaces,21EE1151;ProductStructureInterfaces,21EE1151;SpecialAPI,21ED1151;System,21ED1151;SystemTS,21EC1151;AfrComponentsModel,20CC1141;CATImmVPMInterfaces,20DD1141;CATImmVPMLegacyInterfaces,20DD1151;CATImmVPMNavInterfaces,20DD1151;CATPLMIntegrationAccessItf,20DD1151;CATPLMIntegrationInterfaces,20DD1151;CATStyleProcessor,20DD1141;CATView,20DD1151;CATVirtualVaultSystem,20DD1151;DataCommonProtocolUse,20DD2031;IVInterfaces,20DD1151;InfInterfaces,20DD1151;InfInterfacesTLB,20EE1151;InfOSIDLItf,20DD1151;InteractiveInterfaces,20DD1151;IntrospectionInfrastructure,20CC1141;Mathematics,20DD1131;MultimediaInterfaces,20DD1151;MultimediaPixelImage,20DD1151;OOCInterfaces,20CC1141;ObjectModelerCollection,20DD1131;ObjectModelerEngines,20CC1151;ObjectModelerInterfaces,20DD1151;ObjectModelerSystem,20DD1151;PLMBusinessLogicInterfaces,20DD1151;PLMDictionaryInterfaces,20DD1151;PLMManagementInterfaces,20DD1151;PLMManagementServices,20DD1151;PLMManagementServicesUI,20DD1151;PLMModelerBaseInterfaces,20DD1151;SGCoreUtils,20CC1141;SGInfra,20CC1151;SGManager,20CC1151;UIVCoreTools,20DD1131;VIAImmersiveViewInterfaces,20DD1151;VisuImmersiveDialog,20CC1151;VisualizationController,20DD1151;VisualizationCore,20CC1151;VisualizationFoundation,20CC1151;VisualizationInterfaces,20DD1151;VisualizationSceneGraph,20CC1151;XMLParserItf,20DD1151;
FWCOMPANYNAME=
BUILD=YES
MOD_Container=CAACOMACAddinMdl.m
WS_Concat="C:\Works\DS\COMAC_DEL2\." "C:\Program Files\Dassault Systemes\B422\."
FWmkHLpath=C:\Works\DS\COMAC_DEL2\.\CAACOMACPublicFrm\IdentityCard\Objects\win_b64\.mkHLpath.mk
MOD_ObjectsPath=C:\Works\DS\COMAC_DEL2\.\CAACOMACPublicFrm\CAACOMACAddinMdl.m\Objects\win_b64
RTViewDataListPath=C:\Works\DS\COMAC_DEL2\.\CAACOMACPublicFrm\various\win_b64\CAACOMACAddinMdl.m\module.data
FWCOPYRIGHT=
TYPELATE=mkSharedLibrary
BUILT_OBJECT_TYPE=SHARED LIBRARY
IMAKEKEY_VALID=COMDYN_MODULE INCLUDED_MODULES
TARGETS_MANDATORY=cscimplement cscimplementclang
FW_INCPATH="C:\Works\DS\COMAC_DEL2\.\CAACOMACPublicFrm\PrivateInterfaces" "C:\Works\DS\COMAC_DEL2\.\CAACOMACPublicFrm\PrivateGenerated\win_b64" "C:\Works\DS\COMAC_DEL2\.\CAACOMACPublicFrm\ProtectedInterfaces" "C:\Works\DS\COMAC_DEL2\.\CAACOMACPublicFrm\ProtectedGenerated\win_b64" "C:\Works\DS\COMAC_DEL2\.\CAACOMACPublicFrm\PublicInterfaces" "C:\Works\DS\COMAC_DEL2\.\CAACOMACPublicFrm\PublicGenerated\win_b64"
MOD_SrcPath=C:\Works\DS\COMAC_DEL2\.\CAACOMACPublicFrm\CAACOMACAddinMdl.m\src
DOC_RTViewDataListPath=C:\Works\DS\COMAC_DEL2\.\CAACOMACPublicFrm\various\win_b64.doc\CAACOMACAddinMdl.m\module.data
LINK_WITH=JS0GROUP CATAfrFoundation CATAfrItf DELWkiExposeUseItf
MOD_Included=M_CAACOMACAddinMdl
M_CATSysTS=mkSharedLibrary "C:\Program Files\Dassault Systemes\B422\.\SystemTS\CATSysTS.m" CATSysTS - - - - - -
FWPATH=C:\Works\DS\COMAC_DEL2\.\CAACOMACPublicFrm
MK_BUILD_CONFIGURATION=
MKMK_DEBUG=YES
M_DELWkiExposeUseItf=mkSharedLibrary "C:\Program Files\Dassault Systemes\B422\.\DELWkiExposeUseItf\DELWkiExposeUseItf.m" DELWkiExposeUseItf - - - - - -
FWSOURCES=C:\Works\DS\COMAC_DEL2\.\CAACOMACPublicFrm
STEPS_TO_CLEAN=
M_CATSysMultiThreading=mkSharedLibrary "C:\Program Files\Dassault Systemes\B422\.\SystemTS\CATSysMultiThreading.m" CATSysMultiThreading - - - - - -
MKMK_DEBUGEDITANDCONTINUE=
FWDNAME=CAACOMACPublicFrm
MODNAME=CAACOMACAddinMdl
REAL_LINK_WITH=JS0GROUP JS0BASEILB CATSysMultiThreading CATSysTS CATSysTSObjectModeler CATAfrFoundation CATAfrItf CATVisItf CATAfrCompanion CATAfrComponentsModel DELWkiExposeUseItf
