M_CM_CUSManuEngAddin=mkSharedLibrary "C:\Works\DS\COMAC_DEL2\.\CM_CUSAddin\CM_CUSManuEngAddin.m" CM_CUSManuEngAddin - - - - - -
TRANSITIVEBUILT=NO
MKMK_DEVSTAGE=
MOD_LinkWith=M_JS0GROUP M_JS0BASEILB M_CATSysMultiThreading M_CATSysTS M_CATSysTSObjectModeler M_CATAfrItf M_CATAfrFoundation M_CATVisItf M_CATAfrCompanion M_CATAfrComponentsModel M_DELPPRLiveProcessItf M_DELPPRAuthFoundationItf M_DELPPRLiveSystemUseItfCPP M_DELWkiExposeUseItf M_CATImmPPRNavInterfaces M_MachiningU5Itf
MKMK_WARNING=
MKMK_ZIPJAVASOURCE=
GProtected=C:\Works\DS\COMAC_DEL2\.\CM_CUSAddin\ProtectedGenerated\win_b64
IProtected=C:\Works\DS\COMAC_DEL2\.\CM_CUSAddin\ProtectedInterfaces
M_CATVisItf=mkSharedLibrary "C:\Program Files\Dassault Systemes\B422\.\VisualizationInterfaces\CATVisItf.m" CATVisItf - - - - - -
MKMK_BSCMAKE=
M_CATSysTSObjectModeler=mkSharedLibrary "C:\Program Files\Dassault Systemes\B422\.\SystemTS\CATSysTSObjectModeler.m" CATSysTSObjectModeler - - - - - -
GLocal=C:\Works\DS\COMAC_DEL2\.\CM_CUSAddin\CM_CUSManuEngAddin.m\LocalGenerated\win_b64
ILocal=C:\Works\DS\COMAC_DEL2\.\CM_CUSAddin\CM_CUSManuEngAddin.m\LocalInterfaces
M_JS0BASEILB=mkSharedLibrary "C:\Program Files\Dassault Systemes\B422\.\SystemTS\JS0BASEILB.m" JS0BASEILB - - - - - -
IPublic=C:\Works\DS\COMAC_DEL2\.\CM_CUSAddin\PublicInterfaces
GPublic=C:\Works\DS\COMAC_DEL2\.\CM_CUSAddin\PublicGenerated\win_b64
MODSOURCES=C:\Works\DS\COMAC_DEL2\.\CM_CUSAddin\CM_CUSManuEngAddin.m
MOD_INCPATH="C:\Works\DS\COMAC_DEL2\.\CM_CUSAddin\CM_CUSManuEngAddin.m\src" "C:\Works\DS\COMAC_DEL2\.\CM_CUSAddin\CM_CUSManuEngAddin.m\LocalInterfaces" "C:\Works\DS\COMAC_DEL2\.\CM_CUSAddin\CM_CUSManuEngAddin.m\LocalGenerated\win_b64"
GPrivate=C:\Works\DS\COMAC_DEL2\.\CM_CUSAddin\PrivateGenerated\win_b64
IPrivate=C:\Works\DS\COMAC_DEL2\.\CM_CUSAddin\PrivateInterfaces
USE_PDB_FILE=YES
WSPATH=C:\Works\DS\COMAC_DEL2\.
M_CATImmPPRNavInterfaces=mkSharedLibrary "C:\Program Files\Dassault Systemes\B422\.\CATImmPPRNavInterfaces\CATImmPPRNavInterfaces.m" CATImmPPRNavInterfaces - - - - - -
MODPATH=C:\Works\DS\COMAC_DEL2\.\CM_CUSAddin\CM_CUSManuEngAddin.m
FWNAME=CM_CUSAddin
WSROOT=C:\Works\DS\COMAC_DEL2\.
CONTNAME=CM_CUSManuEngAddin
WSSOURCES=C:\Works\DS\COMAC_DEL2\.
M_CATAfrComponentsModel=mkSharedLibrary "C:\Program Files\Dassault Systemes\B422\.\AfrComponentsModel\CATAfrComponentsModel.m" CATAfrComponentsModel - - - - - -
TARGETS_VALID=cppgrammar typelibgrammar compilation sourceruler cpponly link1st link2nd runtimedata buildtimedata
WSENAME_msg=CM_CUSAddin\CM_CUSManuEngAddin.m
MODDIRNAME=CM_CUSManuEngAddin.m
M_CATAfrCompanion=mkSharedLibrary "C:\Program Files\Dassault Systemes\B422\.\AfrFoundation\CATAfrCompanion.m" CATAfrCompanion - - - - - -
M_CATAfrFoundation=mkSharedLibrary "C:\Program Files\Dassault Systemes\B422\.\AfrFoundation\CATAfrFoundation.m" CATAfrFoundation - - - - - -
M_JS0GROUP=mkSharedLibrary "C:\Program Files\Dassault Systemes\B422\.\System\JS0GROUP.m" JS0GROUP - - - - - -
NAME=C:\Works\DS\COMAC_DEL2\.\CM_CUSAddin\CM_CUSManuEngAddin.m\Objects\win_b64\.mkdata.mkb
M_CATAfrItf=mkSharedLibrary "C:\Program Files\Dassault Systemes\B422\.\AfrInterfaces\CATAfrItf.m" CATAfrItf - - - - - -
STEPS_TO_BUILD=DoxGrammar1st buildtimedata compilation cppgrammar cpponly cscimplement cscimplementclang grammar1st link1st link2nd runtimedata sourceruler typelibgrammar
WSEKEY=M_CM_CUSManuEngAddin
TARGET_DYNLINK=link1st link2nd
_MK_CLR_BLDCONF=MANAGED_CLR$(_MK_MSNET_VERS)
WIZARD_LINK_MODULES=JS0GROUP CATAfrItf CATAfrFoundation DELPPRLiveProcessItf DELPPRAuthFoundationItf DELPPRLiveSystemUseItfCPP DELWkiExposeUseItf CATImmPPRNavInterfaces MachiningU5Itf
WSSOURCES_Concat="C:\Works\DS\COMAC_DEL2\." "C:\Program Files\Dassault Systemes\B422\."
FW_AllPreq=AfrFoundation,21ED1151;AfrInterfaces,21ED1151;BSFBuildtimeData,21DD1140;CATFLEditorServices,21EE1151;CATImmPPRNavInterfaces,21EE1151;DELPPRAuthFoundationInterfaces,21EE1151;DELPPRLiveProcessInterfaces,21EE1151;DELPPRLiveSystemUseItf,21EE1151;DELWkiExposeUseItf,21EE1151;MachiningU5Itf,21EE1151;SpecialAPI,21ED1151;System,21ED1151;AUTGphInterfaces,20DD1151;AfrComponentsModel,20CC1141;CATImmVPMLegacyInterfaces,20DD1151;CATPLMComponentInterfaces,20DD1151;CATPLMIdentificationAccess,20CC1151;CATRFLPLMModelerInterfaces,20DD1151;CATStyleProcessor,20DD1141;CATView,20DD1151;CATVirtualVaultSystem,20DD1151;DataCommonProtocolUse,20DD2031;Dialog,20CC1151;IVInterfaces,20DD1151;InfInterfaces,20DD1151;InfInterfacesTLB,20EE1151;InfOSIDLItf,20DD1151;InteractiveInterfaces,20DD1131;IntrospectionInfrastructure,20CC1141;KnowledgeInterfaces,20DD1151;Mathematics,20DD1131;MultimediaInterfaces,20DD1151;MultimediaPixelImage,20DD1151;OOCInterfaces,20CC1141;ObjectModelerBase,20DD1151;ObjectModelerCollection,20DD1131;ObjectModelerEngines,20CC1151;ObjectModelerInterfaces,20DD1151;ObjectModelerSystem,20DD1151;PLMDictionaryInterfaces,20DD1151;PLMImplementLinkInterfaces,20DD1151;PLMModelerBaseInterfaces,20DD1151;SGCoreUtils,20CC1141;SGInfra,20CC1151;SGManager,20CC1151;SystemTS,20CC1131;UIVCoreTools,20DD1131;VisuImmersiveDialog,20CC1151;VisualizationController,20DD1151;VisualizationCore,20CC1151;VisualizationFoundation,20CC1151;VisualizationInterfaces,20DD1151;VisualizationSceneGraph,20CC1151;XMLParserItf,20DD1151;
FWCOMPANYNAME=
M_DELPPRLiveProcessItf=mkSharedLibrary "C:\Program Files\Dassault Systemes\B422\.\DELPPRLiveProcessInterfaces\DELPPRLiveProcessItf.m" DELPPRLiveProcessItf - - - - - -
BUILD=YES
MOD_Container=CM_CUSManuEngAddin.m
WS_Concat="C:\Works\DS\COMAC_DEL2\." "C:\Program Files\Dassault Systemes\B422\."
FWmkHLpath=C:\Works\DS\COMAC_DEL2\.\CM_CUSAddin\IdentityCard\Objects\win_b64\.mkHLpath.mk
MOD_ObjectsPath=C:\Works\DS\COMAC_DEL2\.\CM_CUSAddin\CM_CUSManuEngAddin.m\Objects\win_b64
RTViewDataListPath=C:\Works\DS\COMAC_DEL2\.\CM_CUSAddin\various\win_b64\CM_CUSManuEngAddin.m\module.data
FWCOPYRIGHT=
M_MachiningU5Itf=mkSharedLibrary "C:\Program Files\Dassault Systemes\B422\.\MachiningU5Itf\MachiningU5Itf.m" MachiningU5Itf - - - - - -
TYPELATE=mkSharedLibrary
BUILT_OBJECT_TYPE=SHARED LIBRARY
IMAKEKEY_VALID=COMDYN_MODULE INCLUDED_MODULES
TARGETS_MANDATORY=cscimplement cscimplementclang
FW_INCPATH="C:\Works\DS\COMAC_DEL2\.\CM_CUSAddin\PrivateInterfaces" "C:\Works\DS\COMAC_DEL2\.\CM_CUSAddin\PrivateGenerated\win_b64" "C:\Works\DS\COMAC_DEL2\.\CM_CUSAddin\ProtectedInterfaces" "C:\Works\DS\COMAC_DEL2\.\CM_CUSAddin\ProtectedGenerated\win_b64" "C:\Works\DS\COMAC_DEL2\.\CM_CUSAddin\PublicInterfaces" "C:\Works\DS\COMAC_DEL2\.\CM_CUSAddin\PublicGenerated\win_b64"
MOD_SrcPath=C:\Works\DS\COMAC_DEL2\.\CM_CUSAddin\CM_CUSManuEngAddin.m\src
DOC_RTViewDataListPath=C:\Works\DS\COMAC_DEL2\.\CM_CUSAddin\various\win_b64.doc\CM_CUSManuEngAddin.m\module.data
LINK_WITH=JS0GROUP CATAfrItf CATAfrFoundation DELPPRLiveProcessItf DELPPRAuthFoundationItf DELPPRLiveSystemUseItfCPP DELWkiExposeUseItf CATImmPPRNavInterfaces MachiningU5Itf
MOD_Included=M_CM_CUSManuEngAddin
M_DELPPRAuthFoundationItf=mkSharedLibrary "C:\Program Files\Dassault Systemes\B422\.\DELPPRAuthFoundationInterfaces\DELPPRAuthFoundationItf.m" DELPPRAuthFoundationItf - - - - - -
M_CATSysTS=mkSharedLibrary "C:\Program Files\Dassault Systemes\B422\.\SystemTS\CATSysTS.m" CATSysTS - - - - - -
FWPATH=C:\Works\DS\COMAC_DEL2\.\CM_CUSAddin
MK_BUILD_CONFIGURATION=
MKMK_DEBUG=YES
M_DELPPRLiveSystemUseItfCPP=mkSharedLibrary "C:\Program Files\Dassault Systemes\B422\.\DELPPRLiveSystemUseItf\DELPPRLiveSystemUseItfCPP.m" DELPPRLiveSystemUseItfCPP - - - - - -
M_DELWkiExposeUseItf=mkSharedLibrary "C:\Program Files\Dassault Systemes\B422\.\DELWkiExposeUseItf\DELWkiExposeUseItf.m" DELWkiExposeUseItf - - - - - -
FWSOURCES=C:\Works\DS\COMAC_DEL2\.\CM_CUSAddin
STEPS_TO_CLEAN=
F_CM_CUSAddin=mkFrameworkCode "C:\Works\DS\COMAC_DEL2\.\CM_CUSAddin" CM_CUSAddin - -
M_CATSysMultiThreading=mkSharedLibrary "C:\Program Files\Dassault Systemes\B422\.\SystemTS\CATSysMultiThreading.m" CATSysMultiThreading - - - - - -
MKMK_DEBUGEDITANDCONTINUE=
FWDNAME=CM_CUSAddin
MODNAME=CM_CUSManuEngAddin
REAL_LINK_WITH=JS0GROUP JS0BASEILB CATSysMultiThreading CATSysTS CATSysTSObjectModeler CATAfrItf CATAfrFoundation CATVisItf CATAfrCompanion CATAfrComponentsModel DELPPRLiveProcessItf DELPPRAuthFoundationItf DELPPRLiveSystemUseItfCPP DELWkiExposeUseItf CATImmPPRNavInterfaces MachiningU5Itf
