TRANSITIVEBUILT=NO
MKMK_DEVSTAGE=
MOD_LinkWith=M_JS0FM M_JS0GROUP M_JS0BASEILB M_CATSysMultiThreading M_CATSysTS M_CATSysTSObjectModeler M_CATVisItf M_CATDialogEngine M_CATOmx M_CATPLMIdentificationAccess M_CATPLMComponentInterfaces M_SceneGraphManager M_DELWkiExposeUseItf M_KnowledgeItf M_CAAUtilityMdl M_PLMDocumentInterfacesItf
MKMK_WARNING=
MKMK_ZIPJAVASOURCE=
GProtected=C:\Works\DS\COMAC_DEL2\.\CAACOMACPPRFrm\ProtectedGenerated\win_b64
IProtected=C:\Works\DS\COMAC_DEL2\.\CAACOMACPPRFrm\ProtectedInterfaces
M_CATVisItf=mkSharedLibrary "C:\Program Files\Dassault Systemes\B422\.\VisualizationInterfaces\CATVisItf.m" CATVisItf - - - - - -
MKMK_BSCMAKE=
M_CATSysTSObjectModeler=mkSharedLibrary "C:\Program Files\Dassault Systemes\B422\.\SystemTS\CATSysTSObjectModeler.m" CATSysTSObjectModeler - - - - - -
M_CATDialogEngine=mkSharedLibrary "C:\Program Files\Dassault Systemes\B422\.\DialogEngine\CATDialogEngine.m" CATDialogEngine - - - - - -
M_CAAUtilityMdl=mkSharedLibrary "C:\Works\DS\COMAC_DEL2\.\CAACOMACPublicFrm\CAAUtilityMdl.m" CAAUtilityMdl - - - - - -
GLocal=C:\Works\DS\COMAC_DEL2\.\CAACOMACPPRFrm\COMACWIMdl.m\LocalGenerated\win_b64
ILocal=C:\Works\DS\COMAC_DEL2\.\CAACOMACPPRFrm\COMACWIMdl.m\LocalInterfaces
M_JS0BASEILB=mkSharedLibrary "C:\Program Files\Dassault Systemes\B422\.\SystemTS\JS0BASEILB.m" JS0BASEILB - - - - - -
IPublic=C:\Works\DS\COMAC_DEL2\.\CAACOMACPPRFrm\PublicInterfaces
GPublic=C:\Works\DS\COMAC_DEL2\.\CAACOMACPPRFrm\PublicGenerated\win_b64
M_CATOmx=mkSharedLibrary "C:\Program Files\Dassault Systemes\B422\.\ObjectModelerCollection\CATOmx.m" CATOmx - - - - - -
MODSOURCES=C:\Works\DS\COMAC_DEL2\.\CAACOMACPPRFrm\COMACWIMdl.m
MOD_INCPATH="C:\Works\DS\COMAC_DEL2\.\CAACOMACPPRFrm\COMACWIMdl.m\src" "C:\Works\DS\COMAC_DEL2\.\CAACOMACPPRFrm\COMACWIMdl.m\LocalInterfaces" "C:\Works\DS\COMAC_DEL2\.\CAACOMACPPRFrm\COMACWIMdl.m\LocalGenerated\win_b64"
M_KnowledgeItf=mkSharedLibrary "C:\Program Files\Dassault Systemes\B422\.\KnowledgeInterfaces\KnowledgeItf.m" KnowledgeItf - - - - - -
M_COMACWIMdl=mkSharedLibrary "C:\Works\DS\COMAC_DEL2\.\CAACOMACPPRFrm\COMACWIMdl.m" COMACWIMdl - - - - - -
GPrivate=C:\Works\DS\COMAC_DEL2\.\CAACOMACPPRFrm\PrivateGenerated\win_b64
IPrivate=C:\Works\DS\COMAC_DEL2\.\CAACOMACPPRFrm\PrivateInterfaces
USE_PDB_FILE=YES
WSPATH=C:\Works\DS\COMAC_DEL2\.
MODPATH=C:\Works\DS\COMAC_DEL2\.\CAACOMACPPRFrm\COMACWIMdl.m
FWNAME=CAACOMACPPRFrm
WSROOT=C:\Works\DS\COMAC_DEL2\.
CONTNAME=COMACWIMdl
WSSOURCES=C:\Works\DS\COMAC_DEL2\.
TARGETS_VALID=cppgrammar typelibgrammar compilation sourceruler cpponly link1st link2nd runtimedata buildtimedata
WSENAME_msg=CAACOMACPPRFrm\COMACWIMdl.m
MODDIRNAME=COMACWIMdl.m
M_JS0GROUP=mkSharedLibrary "C:\Program Files\Dassault Systemes\B422\.\System\JS0GROUP.m" JS0GROUP - - - - - -
NAME=C:\Works\DS\COMAC_DEL2\.\CAACOMACPPRFrm\COMACWIMdl.m\Objects\win_b64\.mkdata.mkb
STEPS_TO_BUILD=DoxGrammar1st buildtimedata compilation cppgrammar cpponly cscimplement cscimplementclang grammar1st link1st link2nd runtimedata sourceruler typelibgrammar
WSEKEY=M_COMACWIMdl
TARGET_DYNLINK=link1st link2nd
_MK_CLR_BLDCONF=MANAGED_CLR$(_MK_MSNET_VERS)
WIZARD_LINK_MODULES=JS0FM JS0GROUP CATVisItf CATDialogEngine CATPLMComponentInterfaces SceneGraphManager DELWkiExposeUseItf KnowledgeItf CAAUtilityMdl PLMDocumentInterfacesItf
WSSOURCES_Concat="C:\Works\DS\COMAC_DEL2\." "C:\Program Files\Dassault Systemes\B422\."
FW_AllPreq=AfrFoundation,21EC1151;AfrProperties,21EE1151;AttributeTools,11EE1151;BSFBuildtimeData,21DD1140;CAACOMACPublicFrm,11EE1151;CAT3DPhysicalRepInterfaces,21EE1151;CATMecModLiveUseItf,21EE1151;CATMecModUseItf,21EE1151;CATPLMComponentInterfaces,21EE1151;CATPLMIdentificationAccess,21EC1151;CATPLMIntegrationAccess,21EE1151;CATPLMIntegrationUse,21EE1151;CM_ManuEngServiceFrm,11EE1151;CM_UnitityService,11EE1151;DELPPRAuthFoundationInterfaces,21EE1151;DELPPRProcessItf,21EE1151;DELPPRResourceItf,21EE1151;DELPPRSystemItf,21EE1151;DELWkiExposeUseItf,21EE1151;DataCommonProtocolUse,21ED1151;DelmiaTool,11EE1151;Dialog,21EC1151;DialogEngine,21ED1151;KnowledgeInterfaces,21EC1151;ObjectModelerBase,21ED1151;PLMDictionaryNavServices,21ED1151;PLMDocumentInterfaces,21EE1151;ProductStructureAccess,21EE1151;ProductStructureInterfaces,21EE1151;ProductStructureUseItf,21EE1151;SGManager,21EC1151;SpecialAPI,21ED1151;System,21ED1151;SystemTS,21EC1151;VisualizationInterfaces,21ED1151;AdvancedMathematics,20DD1151;AfrComponentsModel,20CC1141;AfrInterfaces,20DD1131;AfrNavigator,20EE1151;AutomationInterfaces,20EE1151;CATFunctionalModelerUseItf,20EE1151;CATGSMUseItf,20EE1151;CATImmVPMInterfaces,20DD1141;CATImmVPMLegacyInterfaces,20DD1151;CATImmVPMNavInterfaces,20DD1151;CATLogicalModelerUseItf,20EE1151;CATMathStream,20DD1151;CATMecModExtendItf,20EE1151;CATMecModUIUseItf,20EE1151;CATMmrAutomationInterfaces,20EE1151;CATPLMConfigUXItf,20EE1151;CATPLMConfigUseItf,20EE1151;CATPLMIntegrationAccessItf,20DD1151;CATPLMIntegrationInterfaces,20DD1151;CATPLMUIInterfaces,20EE1151;CATSketcherIDLItf,20EE1151;CATSketcherUseItf,20EE1151;CATSkt2DGeomIntegUseItf,20EE1151;CATStyleProcessor,20DD1141;CATView,20DD1151;CATVirtualVaultSystem,20DD1151;CATWeightEquivalentUseItf,20EE1151;DELPPRLiveProcessInterfaces,20EE1151;DELPofMfgUseItf,20EE1151;ElecHarnessItf,20EE1151;ElecIXFInterfaces,20DD1151;ElecLogicalItf,20EE1151;ElecRoutingItf,20EE1151;ElectricalInterfaces,20EE1151;GMModelInterfaces,20DD1151;GMOperatorsInterfaces,20EE1151;GeometricObjects,20DD1151;Graph,20DD1151;IVInterfaces,20DD1151;InfInterfaces,20DD1151;InfInterfacesTLB,20EE1151;InfOSIDLItf,20DD1151;InteractiveInterfaces,20DD1151;IntrospectionInfrastructure,20CC1141;KnowledgeIDLItf,20EE1151;Mathematics,20DD1131;MeasureGeometryInterfaces,20EE1151;MultimediaInterfaces,20DD1151;MultimediaPixelImage,20DD1151;OOCInterfaces,20CC1141;ObjectModelerCollection,20DD1131;ObjectModelerEngines,20CC1151;ObjectModelerInterfaces,20DD1151;ObjectModelerNavigator,20DD1151;ObjectModelerSystem,20DD1151;PLMBusinessLogicInterfaces,20DD1151;PLMDictionaryInterfaces,20DD1151;PLMFolderInterfaces,20EE1151;PLMInterferenceUseItf,20EE1151;PLMLibraryNavUseItf,20EE1151;PLMManagementInterfaces,20DD1151;PLMManagementServices,20DD1151;PLMManagementServicesUI,20DD1151;PLMModelerBaseInterfaces,20DD1151;PLMSessionInterfaces,20EE1151;PLMSetupDataInterfaces,20EE1151;PLMWorkspaceInterfaces,20EE1131;SGCoreUtils,20CC1141;SGInfra,20CC1151;UIVCoreTools,20DD1131;VIAImmersiveViewInterfaces,20DD1151;VPMEditorInterfaces,20EE1151;VisuImmersiveDialog,20CC1151;VisuImmersiveDialogEx,20DD1151;VisuImmersiveUI,20DD1151;VisualizationController,20DD1151;VisualizationCore,20CC1151;VisualizationFoundation,20CC1151;VisualizationSceneGraph,20CC1151;XMLParserItf,20DD1151;
FWCOMPANYNAME=
BUILD=YES
MOD_Container=COMACWIMdl.m
M_PLMDocumentInterfacesItf=mkSharedLibrary "C:\Program Files\Dassault Systemes\B422\.\PLMDocumentInterfaces\PLMDocumentInterfacesItf.m" PLMDocumentInterfacesItf - - - - - -
WS_Concat="C:\Works\DS\COMAC_DEL2\." "C:\Program Files\Dassault Systemes\B422\."
FWmkHLpath=C:\Works\DS\COMAC_DEL2\.\CAACOMACPPRFrm\IdentityCard\Objects\win_b64\.mkHLpath.mk
MOD_ObjectsPath=C:\Works\DS\COMAC_DEL2\.\CAACOMACPPRFrm\COMACWIMdl.m\Objects\win_b64
RTViewDataListPath=C:\Works\DS\COMAC_DEL2\.\CAACOMACPPRFrm\various\win_b64\COMACWIMdl.m\module.data
M_JS0FM=mkSharedLibrary "C:\Program Files\Dassault Systemes\B422\.\System\JS0FM.m" JS0FM - - - - - -
FWCOPYRIGHT=
M_CATPLMComponentInterfaces=mkSharedLibrary "C:\Program Files\Dassault Systemes\B422\.\CATPLMComponentInterfaces\CATPLMComponentInterfaces.m" CATPLMComponentInterfaces - - - - - -
TYPELATE=mkSharedLibrary
BUILT_OBJECT_TYPE=SHARED LIBRARY
M_SceneGraphManager=mkSharedLibrary "C:\Program Files\Dassault Systemes\B422\.\SGManager\SceneGraphManager.m" SceneGraphManager - - - - - -
IMAKEKEY_VALID=COMDYN_MODULE INCLUDED_MODULES
TARGETS_MANDATORY=cscimplement cscimplementclang
FW_INCPATH="C:\Works\DS\COMAC_DEL2\.\CAACOMACPPRFrm\PrivateInterfaces" "C:\Works\DS\COMAC_DEL2\.\CAACOMACPPRFrm\PrivateGenerated\win_b64" "C:\Works\DS\COMAC_DEL2\.\CAACOMACPPRFrm\ProtectedInterfaces" "C:\Works\DS\COMAC_DEL2\.\CAACOMACPPRFrm\ProtectedGenerated\win_b64" "C:\Works\DS\COMAC_DEL2\.\CAACOMACPPRFrm\PublicInterfaces" "C:\Works\DS\COMAC_DEL2\.\CAACOMACPPRFrm\PublicGenerated\win_b64"
MOD_SrcPath=C:\Works\DS\COMAC_DEL2\.\CAACOMACPPRFrm\COMACWIMdl.m\src
DOC_RTViewDataListPath=C:\Works\DS\COMAC_DEL2\.\CAACOMACPPRFrm\various\win_b64.doc\COMACWIMdl.m\module.data
LINK_WITH=JS0FM JS0GROUP CATVisItf CATDialogEngine CATPLMComponentInterfaces SceneGraphManager DELWkiExposeUseItf KnowledgeItf CAAUtilityMdl PLMDocumentInterfacesItf
MOD_Included=M_COMACWIMdl
M_CATPLMIdentificationAccess=mkSharedLibrary "C:\Program Files\Dassault Systemes\B422\.\CATPLMIdentificationAccess\CATPLMIdentificationAccess.m" CATPLMIdentificationAccess - - - - - -
M_CATSysTS=mkSharedLibrary "C:\Program Files\Dassault Systemes\B422\.\SystemTS\CATSysTS.m" CATSysTS - - - - - -
FWPATH=C:\Works\DS\COMAC_DEL2\.\CAACOMACPPRFrm
MK_BUILD_CONFIGURATION=
MKMK_DEBUG=YES
M_DELWkiExposeUseItf=mkSharedLibrary "C:\Program Files\Dassault Systemes\B422\.\DELWkiExposeUseItf\DELWkiExposeUseItf.m" DELWkiExposeUseItf - - - - - -
FWSOURCES=C:\Works\DS\COMAC_DEL2\.\CAACOMACPPRFrm
STEPS_TO_CLEAN=
M_CATSysMultiThreading=mkSharedLibrary "C:\Program Files\Dassault Systemes\B422\.\SystemTS\CATSysMultiThreading.m" CATSysMultiThreading - - - - - -
F_CAACOMACPPRFrm=mkFrameworkCode "C:\Works\DS\COMAC_DEL2\.\CAACOMACPPRFrm" CAACOMACPPRFrm - -
MKMK_DEBUGEDITANDCONTINUE=
FWDNAME=CAACOMACPPRFrm
MODNAME=COMACWIMdl
REAL_LINK_WITH=JS0FM JS0GROUP JS0BASEILB CATSysMultiThreading CATSysTS CATSysTSObjectModeler CATVisItf CATDialogEngine CATOmx CATPLMIdentificationAccess CATPLMComponentInterfaces SceneGraphManager DELWkiExposeUseItf KnowledgeItf CAAUtilityMdl PLMDocumentInterfacesItf
